<flow id="flowQueryAllFlow" name="flowQueryAllFlow" begin-node-id="queryAllFlow"
	default-node-id="end">
	<nodes>
		<node id="queryAllFlow" name="queryAllFlow"  title="查询所有流程">
			<component name="queryAllFlowComponent">
				<properties>
				</properties>
			</component>
		</node>
	</nodes>
</flow>
